
	Building GPGPU-Sim version 3.2.2 (build gpgpu-sim_git-commit-_modified_) with CUDA version 8.0

if [ ! -d lib/gcc-4.4.7/cuda-8000/release ]; then mkdir -p lib/gcc-4.4.7/cuda-8000/release; fi;
if [ ! -d /home/lewis/hwAI/gpgpu-sim-dev/build/gcc-4.4.7/cuda-8000/release/libcuda ]; then mkdir -p /home/lewis/hwAI/gpgpu-sim-dev/build/gcc-4.4.7/cuda-8000/release/libcuda; fi;
if [ ! -d /home/lewis/hwAI/gpgpu-sim-dev/build/gcc-4.4.7/cuda-8000/release/cuda-sim ]; then mkdir -p /home/lewis/hwAI/gpgpu-sim-dev/build/gcc-4.4.7/cuda-8000/release/cuda-sim; fi;
if [ ! -d /home/lewis/hwAI/gpgpu-sim-dev/build/gcc-4.4.7/cuda-8000/release/cuda-sim/decuda_pred_table ]; then mkdir -p /home/lewis/hwAI/gpgpu-sim-dev/build/gcc-4.4.7/cuda-8000/release/cuda-sim/decuda_pred_table; fi;
if [ ! -d /home/lewis/hwAI/gpgpu-sim-dev/build/gcc-4.4.7/cuda-8000/release/gpgpu-sim ]; then mkdir -p /home/lewis/hwAI/gpgpu-sim-dev/build/gcc-4.4.7/cuda-8000/release/gpgpu-sim; fi;
if [ ! -d /home/lewis/hwAI/gpgpu-sim-dev/build/gcc-4.4.7/cuda-8000/release/libopencl ]; then mkdir -p /home/lewis/hwAI/gpgpu-sim-dev/build/gcc-4.4.7/cuda-8000/release/libopencl; fi;
if [ ! -d /home/lewis/hwAI/gpgpu-sim-dev/build/gcc-4.4.7/cuda-8000/release/libopencl/bin ]; then mkdir -p /home/lewis/hwAI/gpgpu-sim-dev/build/gcc-4.4.7/cuda-8000/release/libopencl/bin; fi;
if [ ! -d /home/lewis/hwAI/gpgpu-sim-dev/build/gcc-4.4.7/cuda-8000/release/intersim2 ]; then mkdir -p /home/lewis/hwAI/gpgpu-sim-dev/build/gcc-4.4.7/cuda-8000/release/intersim2; fi;
if [ ! -d /home/lewis/hwAI/gpgpu-sim-dev/build/gcc-4.4.7/cuda-8000/release/cuobjdump_to_ptxplus ]; then mkdir -p /home/lewis/hwAI/gpgpu-sim-dev/build/gcc-4.4.7/cuda-8000/release/cuobjdump_to_ptxplus; fi;
if [ ! -d /home/lewis/hwAI/gpgpu-sim-dev/build/gcc-4.4.7/cuda-8000/release/gpuwattch ]; then mkdir -p /home/lewis/hwAI/gpgpu-sim-dev/build/gcc-4.4.7/cuda-8000/release/gpuwattch; fi;
if [ ! -d /home/lewis/hwAI/gpgpu-sim-dev/build/gcc-4.4.7/cuda-8000/release/gpuwattch/cacti ]; then mkdir -p /home/lewis/hwAI/gpgpu-sim-dev/build/gcc-4.4.7/cuda-8000/release/gpuwattch/cacti; fi;
make -C ./src/cuda-sim/ depend
make[1]: Entering directory '/home/lewis/hwAI/gpgpu-sim-dev/src/cuda-sim'
touch /home/lewis/hwAI/gpgpu-sim-dev/build/gcc-4.4.7/cuda-8000/release/cuda-sim/Makefile.makedepend
makedepend -f/home/lewis/hwAI/gpgpu-sim-dev/build/gcc-4.4.7/cuda-8000/release/cuda-sim/Makefile.makedepend -p/home/lewis/hwAI/gpgpu-sim-dev/build/gcc-4.4.7/cuda-8000/release/cuda-sim/ cuda_device_printf.cc cuda_device_runtime.cc cuda-sim.cc instructions.cc memory.cc ptx_ir.cc ptx_loader.cc ptx_parser.cc ptx_sim.cc ptx-stats.cc 2> /dev/null
make[1]: 'depend' is up to date.
make[1]: Leaving directory '/home/lewis/hwAI/gpgpu-sim-dev/src/cuda-sim'
make -C ./src/cuda-sim/
make[1]: Entering directory '/home/lewis/hwAI/gpgpu-sim-dev/src/cuda-sim'
touch /home/lewis/hwAI/gpgpu-sim-dev/build/gcc-4.4.7/cuda-8000/release/cuda-sim/Makefile.makedepend
makedepend -f/home/lewis/hwAI/gpgpu-sim-dev/build/gcc-4.4.7/cuda-8000/release/cuda-sim/Makefile.makedepend -p/home/lewis/hwAI/gpgpu-sim-dev/build/gcc-4.4.7/cuda-8000/release/cuda-sim/ cuda_device_printf.cc cuda_device_runtime.cc cuda-sim.cc instructions.cc memory.cc ptx_ir.cc ptx_loader.cc ptx_parser.cc ptx_sim.cc ptx-stats.cc 2> /dev/null
g++  -c -O3 -g3 -Wall -Wno-unused-function -Wno-sign-compare -I/usr/local/cuda-8.0/include  -I/home/lewis/hwAI/gpgpu-sim-dev/build/gcc-4.4.7/cuda-8000/release/cuda-sim/ -I. -I/home/lewis/hwAI/gpgpu-sim-dev/build/gcc-4.4.7/cuda-8000/release -fPIC  -DTRACING_ON=1 -DCUDART_VERSION=8000 -std=c++0x cuda-sim.cc -o /home/lewis/hwAI/gpgpu-sim-dev/build/gcc-4.4.7/cuda-8000/release/cuda-sim/cuda-sim.o
ar rcs /home/lewis/hwAI/gpgpu-sim-dev/build/gcc-4.4.7/cuda-8000/release/cuda-sim/libgpgpu_ptx_sim.a /home/lewis/hwAI/gpgpu-sim-dev/build/gcc-4.4.7/cuda-8000/release/cuda-sim/ptx.tab.o /home/lewis/hwAI/gpgpu-sim-dev/build/gcc-4.4.7/cuda-8000/release/cuda-sim/lex.ptx_.o /home/lewis/hwAI/gpgpu-sim-dev/build/gcc-4.4.7/cuda-8000/release/cuda-sim/ptxinfo.tab.o /home/lewis/hwAI/gpgpu-sim-dev/build/gcc-4.4.7/cuda-8000/release/cuda-sim/lex.ptxinfo_.o /home/lewis/hwAI/gpgpu-sim-dev/build/gcc-4.4.7/cuda-8000/release/cuda-sim/ptx_parser.o /home/lewis/hwAI/gpgpu-sim-dev/build/gcc-4.4.7/cuda-8000/release/cuda-sim/ptx_loader.o /home/lewis/hwAI/gpgpu-sim-dev/build/gcc-4.4.7/cuda-8000/release/cuda-sim/cuda_device_printf.o /home/lewis/hwAI/gpgpu-sim-dev/build/gcc-4.4.7/cuda-8000/release/cuda-sim/instructions.o /home/lewis/hwAI/gpgpu-sim-dev/build/gcc-4.4.7/cuda-8000/release/cuda-sim/cuda-sim.o /home/lewis/hwAI/gpgpu-sim-dev/build/gcc-4.4.7/cuda-8000/release/cuda-sim/ptx_ir.o /home/lewis/hwAI/gpgpu-sim-dev/build/gcc-4.4.7/cuda-8000/release/cuda-sim/ptx_sim.o  /home/lewis/hwAI/gpgpu-sim-dev/build/gcc-4.4.7/cuda-8000/release/cuda-sim/memory.o /home/lewis/hwAI/gpgpu-sim-dev/build/gcc-4.4.7/cuda-8000/release/cuda-sim/ptx-stats.o /home/lewis/hwAI/gpgpu-sim-dev/build/gcc-4.4.7/cuda-8000/release/cuda-sim/decuda_pred_table/decuda_pred_table.o /home/lewis/hwAI/gpgpu-sim-dev/build/gcc-4.4.7/cuda-8000/release/cuda-sim/ptx.tab.o /home/lewis/hwAI/gpgpu-sim-dev/build/gcc-4.4.7/cuda-8000/release/cuda-sim/lex.ptx_.o /home/lewis/hwAI/gpgpu-sim-dev/build/gcc-4.4.7/cuda-8000/release/cuda-sim/ptxinfo.tab.o /home/lewis/hwAI/gpgpu-sim-dev/build/gcc-4.4.7/cuda-8000/release/cuda-sim/lex.ptxinfo_.o /home/lewis/hwAI/gpgpu-sim-dev/build/gcc-4.4.7/cuda-8000/release/cuda-sim/cuda_device_runtime.o
make[1]: Leaving directory '/home/lewis/hwAI/gpgpu-sim-dev/src/cuda-sim'
make -C ./src/gpgpu-sim/ depend
make[1]: Entering directory '/home/lewis/hwAI/gpgpu-sim-dev/src/gpgpu-sim'
touch /home/lewis/hwAI/gpgpu-sim-dev/build/gcc-4.4.7/cuda-8000/release/gpgpu-sim/Makefile.makedepend
makedepend -f/home/lewis/hwAI/gpgpu-sim-dev/build/gcc-4.4.7/cuda-8000/release/gpgpu-sim/Makefile.makedepend -p/home/lewis/hwAI/gpgpu-sim-dev/build/gcc-4.4.7/cuda-8000/release/gpgpu-sim/ addrdec.cc dram.cc dram_sched.cc gpu-cache.cc gpu-misc.cc gpu-sim.cc histogram.cc icnt_wrapper.cc l2cache.cc mem_fetch.cc mem_latency_stat.cc power_interface.cc power_stat.cc scoreboard.cc shader.cc stack.cc stat-tool.cc traffic_breakdown.cc visualizer.cc 2> /dev/null
make[1]: 'depend' is up to date.
make[1]: Leaving directory '/home/lewis/hwAI/gpgpu-sim-dev/src/gpgpu-sim'
make -C ./src/gpgpu-sim/
make[1]: Entering directory '/home/lewis/hwAI/gpgpu-sim-dev/src/gpgpu-sim'
touch /home/lewis/hwAI/gpgpu-sim-dev/build/gcc-4.4.7/cuda-8000/release/gpgpu-sim/Makefile.makedepend
makedepend -f/home/lewis/hwAI/gpgpu-sim-dev/build/gcc-4.4.7/cuda-8000/release/gpgpu-sim/Makefile.makedepend -p/home/lewis/hwAI/gpgpu-sim-dev/build/gcc-4.4.7/cuda-8000/release/gpgpu-sim/ addrdec.cc dram.cc dram_sched.cc gpu-cache.cc gpu-misc.cc gpu-sim.cc histogram.cc icnt_wrapper.cc l2cache.cc mem_fetch.cc mem_latency_stat.cc power_interface.cc power_stat.cc scoreboard.cc shader.cc stack.cc stat-tool.cc traffic_breakdown.cc visualizer.cc 2> /dev/null
ar rcs  /home/lewis/hwAI/gpgpu-sim-dev/build/gcc-4.4.7/cuda-8000/release/gpgpu-sim/libgpu_uarch_sim.a /home/lewis/hwAI/gpgpu-sim-dev/build/gcc-4.4.7/cuda-8000/release/gpgpu-sim/addrdec.o /home/lewis/hwAI/gpgpu-sim-dev/build/gcc-4.4.7/cuda-8000/release/gpgpu-sim/dram.o /home/lewis/hwAI/gpgpu-sim-dev/build/gcc-4.4.7/cuda-8000/release/gpgpu-sim/dram_sched.o /home/lewis/hwAI/gpgpu-sim-dev/build/gcc-4.4.7/cuda-8000/release/gpgpu-sim/gpu-cache.o /home/lewis/hwAI/gpgpu-sim-dev/build/gcc-4.4.7/cuda-8000/release/gpgpu-sim/gpu-misc.o /home/lewis/hwAI/gpgpu-sim-dev/build/gcc-4.4.7/cuda-8000/release/gpgpu-sim/gpu-sim.o /home/lewis/hwAI/gpgpu-sim-dev/build/gcc-4.4.7/cuda-8000/release/gpgpu-sim/histogram.o /home/lewis/hwAI/gpgpu-sim-dev/build/gcc-4.4.7/cuda-8000/release/gpgpu-sim/icnt_wrapper.o /home/lewis/hwAI/gpgpu-sim-dev/build/gcc-4.4.7/cuda-8000/release/gpgpu-sim/l2cache.o /home/lewis/hwAI/gpgpu-sim-dev/build/gcc-4.4.7/cuda-8000/release/gpgpu-sim/mem_fetch.o /home/lewis/hwAI/gpgpu-sim-dev/build/gcc-4.4.7/cuda-8000/release/gpgpu-sim/mem_latency_stat.o /home/lewis/hwAI/gpgpu-sim-dev/build/gcc-4.4.7/cuda-8000/release/gpgpu-sim/power_interface.o /home/lewis/hwAI/gpgpu-sim-dev/build/gcc-4.4.7/cuda-8000/release/gpgpu-sim/power_stat.o /home/lewis/hwAI/gpgpu-sim-dev/build/gcc-4.4.7/cuda-8000/release/gpgpu-sim/scoreboard.o /home/lewis/hwAI/gpgpu-sim-dev/build/gcc-4.4.7/cuda-8000/release/gpgpu-sim/shader.o /home/lewis/hwAI/gpgpu-sim-dev/build/gcc-4.4.7/cuda-8000/release/gpgpu-sim/stack.o /home/lewis/hwAI/gpgpu-sim-dev/build/gcc-4.4.7/cuda-8000/release/gpgpu-sim/stat-tool.o /home/lewis/hwAI/gpgpu-sim-dev/build/gcc-4.4.7/cuda-8000/release/gpgpu-sim/traffic_breakdown.o /home/lewis/hwAI/gpgpu-sim-dev/build/gcc-4.4.7/cuda-8000/release/gpgpu-sim/visualizer.o
make[1]: Leaving directory '/home/lewis/hwAI/gpgpu-sim-dev/src/gpgpu-sim'
make "CREATE_LIBRARY=1" "DEBUG=0" -C ./src/intersim2
make[1]: Entering directory '/home/lewis/hwAI/gpgpu-sim-dev/src/intersim2'
touch /home/lewis/hwAI/gpgpu-sim-dev/build/gcc-4.4.7/cuda-8000/release/intersim2/Makefile.makedepend
makedepend -f/home/lewis/hwAI/gpgpu-sim-dev/build/gcc-4.4.7/cuda-8000/release/intersim2/Makefile.makedepend -I-I. -Iarbiters -Iallocators -Irouters -Inetworks -Ipower -I/home/lewis/hwAI/gpgpu-sim-dev/src/gpgpu-sim/ -p/home/lewis/hwAI/gpgpu-sim-dev/build/gcc-4.4.7/cuda-8000/release/intersim2/ config_utils.cpp booksim_config.cpp module.cpp buffer.cpp vc.cpp routefunc.cpp traffic.cpp flitchannel.cpp trafficmanager.cpp batchtrafficmanager.cpp packet_reply_info.cpp buffer_state.cpp stats.cpp credit.cpp outputset.cpp flit.cpp injection.cpp misc_utils.cpp rng_wrapper.cpp rng_double_wrapper.cpp power_module.cpp switch_monitor.cpp buffer_monitor.cpp main.cpp gputrafficmanager.cpp intersim_config.cpp interconnect_interface.cpp allocators/allocator.cpp allocators/islip.cpp allocators/loa.cpp allocators/maxsize.cpp allocators/pim.cpp allocators/selalloc.cpp allocators/separable.cpp allocators/separable_input_first.cpp allocators/separable_output_first.cpp allocators/wavefront.cpp arbiters/arbiter.cpp arbiters/matrix_arb.cpp arbiters/prio_arb.cpp arbiters/roundrobin_arb.cpp arbiters/tree_arb.cpp networks/anynet.cpp networks/cmesh.cpp networks/dragonfly.cpp networks/fattree.cpp networks/flatfly_onchip.cpp networks/fly.cpp networks/kncube.cpp networks/network.cpp networks/qtree.cpp networks/tree4.cpp power/buffer_monitor.cpp power/power_module.cpp power/switch_monitor.cpp routers/chaos_router.cpp routers/event_router.cpp routers/iq_router.cpp routers/router.cpp 2> /dev/null
make[1]: Nothing to be done for 'all'.
make[1]: Leaving directory '/home/lewis/hwAI/gpgpu-sim-dev/src/intersim2'
make -C ./src/ depend
make[1]: Entering directory '/home/lewis/hwAI/gpgpu-sim-dev/src'
touch /home/lewis/hwAI/gpgpu-sim-dev/build/gcc-4.4.7/cuda-8000/release/Makefile.makedepend
makedepend -f/home/lewis/hwAI/gpgpu-sim-dev/build/gcc-4.4.7/cuda-8000/release/Makefile.makedepend -p/home/lewis/hwAI/gpgpu-sim-dev/build/gcc-4.4.7/cuda-8000/release/ abstract_hardware_model.cc debug.cc gpgpusim_entrypoint.cc option_parser.cc statwrapper.cc stream_manager.cc trace.cc 2> /dev/null
make[1]: 'depend' is up to date.
make[1]: Leaving directory '/home/lewis/hwAI/gpgpu-sim-dev/src'
make -C ./src/
make[1]: Entering directory '/home/lewis/hwAI/gpgpu-sim-dev/src'
touch /home/lewis/hwAI/gpgpu-sim-dev/build/gcc-4.4.7/cuda-8000/release/Makefile.makedepend
makedepend -f/home/lewis/hwAI/gpgpu-sim-dev/build/gcc-4.4.7/cuda-8000/release/Makefile.makedepend -p/home/lewis/hwAI/gpgpu-sim-dev/build/gcc-4.4.7/cuda-8000/release/ abstract_hardware_model.cc debug.cc gpgpusim_entrypoint.cc option_parser.cc statwrapper.cc stream_manager.cc trace.cc 2> /dev/null
make   -C ./gpgpu-sim
make[2]: Entering directory '/home/lewis/hwAI/gpgpu-sim-dev/src/gpgpu-sim'
touch /home/lewis/hwAI/gpgpu-sim-dev/build/gcc-4.4.7/cuda-8000/release/gpgpu-sim/Makefile.makedepend
makedepend -f/home/lewis/hwAI/gpgpu-sim-dev/build/gcc-4.4.7/cuda-8000/release/gpgpu-sim/Makefile.makedepend -p/home/lewis/hwAI/gpgpu-sim-dev/build/gcc-4.4.7/cuda-8000/release/gpgpu-sim/ addrdec.cc dram.cc dram_sched.cc gpu-cache.cc gpu-misc.cc gpu-sim.cc histogram.cc icnt_wrapper.cc l2cache.cc mem_fetch.cc mem_latency_stat.cc power_interface.cc power_stat.cc scoreboard.cc shader.cc stack.cc stat-tool.cc traffic_breakdown.cc visualizer.cc 2> /dev/null
ar rcs  /home/lewis/hwAI/gpgpu-sim-dev/build/gcc-4.4.7/cuda-8000/release/gpgpu-sim/libgpu_uarch_sim.a /home/lewis/hwAI/gpgpu-sim-dev/build/gcc-4.4.7/cuda-8000/release/gpgpu-sim/addrdec.o /home/lewis/hwAI/gpgpu-sim-dev/build/gcc-4.4.7/cuda-8000/release/gpgpu-sim/dram.o /home/lewis/hwAI/gpgpu-sim-dev/build/gcc-4.4.7/cuda-8000/release/gpgpu-sim/dram_sched.o /home/lewis/hwAI/gpgpu-sim-dev/build/gcc-4.4.7/cuda-8000/release/gpgpu-sim/gpu-cache.o /home/lewis/hwAI/gpgpu-sim-dev/build/gcc-4.4.7/cuda-8000/release/gpgpu-sim/gpu-misc.o /home/lewis/hwAI/gpgpu-sim-dev/build/gcc-4.4.7/cuda-8000/release/gpgpu-sim/gpu-sim.o /home/lewis/hwAI/gpgpu-sim-dev/build/gcc-4.4.7/cuda-8000/release/gpgpu-sim/histogram.o /home/lewis/hwAI/gpgpu-sim-dev/build/gcc-4.4.7/cuda-8000/release/gpgpu-sim/icnt_wrapper.o /home/lewis/hwAI/gpgpu-sim-dev/build/gcc-4.4.7/cuda-8000/release/gpgpu-sim/l2cache.o /home/lewis/hwAI/gpgpu-sim-dev/build/gcc-4.4.7/cuda-8000/release/gpgpu-sim/mem_fetch.o /home/lewis/hwAI/gpgpu-sim-dev/build/gcc-4.4.7/cuda-8000/release/gpgpu-sim/mem_latency_stat.o /home/lewis/hwAI/gpgpu-sim-dev/build/gcc-4.4.7/cuda-8000/release/gpgpu-sim/power_interface.o /home/lewis/hwAI/gpgpu-sim-dev/build/gcc-4.4.7/cuda-8000/release/gpgpu-sim/power_stat.o /home/lewis/hwAI/gpgpu-sim-dev/build/gcc-4.4.7/cuda-8000/release/gpgpu-sim/scoreboard.o /home/lewis/hwAI/gpgpu-sim-dev/build/gcc-4.4.7/cuda-8000/release/gpgpu-sim/shader.o /home/lewis/hwAI/gpgpu-sim-dev/build/gcc-4.4.7/cuda-8000/release/gpgpu-sim/stack.o /home/lewis/hwAI/gpgpu-sim-dev/build/gcc-4.4.7/cuda-8000/release/gpgpu-sim/stat-tool.o /home/lewis/hwAI/gpgpu-sim-dev/build/gcc-4.4.7/cuda-8000/release/gpgpu-sim/traffic_breakdown.o /home/lewis/hwAI/gpgpu-sim-dev/build/gcc-4.4.7/cuda-8000/release/gpgpu-sim/visualizer.o
make[2]: Leaving directory '/home/lewis/hwAI/gpgpu-sim-dev/src/gpgpu-sim'
ar rcs  /home/lewis/hwAI/gpgpu-sim-dev/build/gcc-4.4.7/cuda-8000/release/libgpgpusim.a /home/lewis/hwAI/gpgpu-sim-dev/build/gcc-4.4.7/cuda-8000/release/abstract_hardware_model.o /home/lewis/hwAI/gpgpu-sim-dev/build/gcc-4.4.7/cuda-8000/release/debug.o /home/lewis/hwAI/gpgpu-sim-dev/build/gcc-4.4.7/cuda-8000/release/gpgpusim_entrypoint.o /home/lewis/hwAI/gpgpu-sim-dev/build/gcc-4.4.7/cuda-8000/release/option_parser.o /home/lewis/hwAI/gpgpu-sim-dev/build/gcc-4.4.7/cuda-8000/release/statwrapper.o /home/lewis/hwAI/gpgpu-sim-dev/build/gcc-4.4.7/cuda-8000/release/stream_manager.o /home/lewis/hwAI/gpgpu-sim-dev/build/gcc-4.4.7/cuda-8000/release/trace.o /home/lewis/hwAI/gpgpu-sim-dev/build/gcc-4.4.7/cuda-8000/release/gpgpu-sim/*.o
make[1]: Leaving directory '/home/lewis/hwAI/gpgpu-sim-dev/src'
make -C /home/lewis/hwAI/gpgpu-sim-dev/src/gpuwattch/ depend
make[1]: Entering directory '/home/lewis/hwAI/gpgpu-sim-dev/src/gpuwattch'
make[2]: Entering directory '/home/lewis/hwAI/gpgpu-sim-dev/src/gpuwattch'
touch /home/lewis/hwAI/gpgpu-sim-dev/build/gcc-4.4.7/cuda-8000/release/gpuwattch/Makefile.makedepend
makedepend -f/home/lewis/hwAI/gpgpu-sim-dev/build/gcc-4.4.7/cuda-8000/release/gpuwattch/Makefile.makedepend -p/home/lewis/hwAI/gpgpu-sim-dev/build/gcc-4.4.7/cuda-8000/release/gpuwattch/ Ucache.cc XML_Parse.cc arbiter.cc area.cc array.cc bank.cc basic_circuit.cc basic_components.cc cacti_interface.cc component.cc core.cc crossbar.cc decoder.cc htree2.cc interconnect.cc io.cc iocontrollers.cc logic.cc main.cc mat.cc memoryctrl.cc noc.cc nuca.cc parameter.cc processor.cc router.cc sharedcache.cc subarray.cc technology.cc uca.cc wire.cc xmlParser.cc gpgpu_sim_wrapper.cc  2> /dev/null
make -C ./cacti/ depend
make[3]: Entering directory '/home/lewis/hwAI/gpgpu-sim-dev/src/gpuwattch/cacti'
make[4]: Entering directory '/home/lewis/hwAI/gpgpu-sim-dev/src/gpuwattch/cacti'
touch /home/lewis/hwAI/gpgpu-sim-dev/build/gcc-4.4.7/cuda-8000/release/gpuwattch/cacti/Makefile.makedepend
makedepend -f/home/lewis/hwAI/gpgpu-sim-dev/build/gcc-4.4.7/cuda-8000/release/gpuwattch/cacti/Makefile.makedepend -p/home/lewis/hwAI/gpgpu-sim-dev/build/gcc-4.4.7/cuda-8000/release/gpuwattch/cacti/ area.cc bank.cc mat.cc main.cc Ucache.cc io.cc technology.cc basic_circuit.cc parameter.cc decoder.cc component.cc uca.cc subarray.cc wire.cc htree2.cc cacti_interface.cc router.cc nuca.cc crossbar.cc arbiter.cc  2> /dev/null
make[4]: Nothing to be done for 'depend'.
make[4]: Leaving directory '/home/lewis/hwAI/gpgpu-sim-dev/src/gpuwattch/cacti'
make[3]: Leaving directory '/home/lewis/hwAI/gpgpu-sim-dev/src/gpuwattch/cacti'
make[2]: Nothing to be done for 'depend'.
make[2]: Leaving directory '/home/lewis/hwAI/gpgpu-sim-dev/src/gpuwattch'
make[1]: Leaving directory '/home/lewis/hwAI/gpgpu-sim-dev/src/gpuwattch'
make -C /home/lewis/hwAI/gpgpu-sim-dev/src/gpuwattch/ 
make[1]: Entering directory '/home/lewis/hwAI/gpgpu-sim-dev/src/gpuwattch'
make[2]: Entering directory '/home/lewis/hwAI/gpgpu-sim-dev/src/gpuwattch'
touch /home/lewis/hwAI/gpgpu-sim-dev/build/gcc-4.4.7/cuda-8000/release/gpuwattch/Makefile.makedepend
makedepend -f/home/lewis/hwAI/gpgpu-sim-dev/build/gcc-4.4.7/cuda-8000/release/gpuwattch/Makefile.makedepend -p/home/lewis/hwAI/gpgpu-sim-dev/build/gcc-4.4.7/cuda-8000/release/gpuwattch/ Ucache.cc XML_Parse.cc arbiter.cc area.cc array.cc bank.cc basic_circuit.cc basic_components.cc cacti_interface.cc component.cc core.cc crossbar.cc decoder.cc htree2.cc interconnect.cc io.cc iocontrollers.cc logic.cc main.cc mat.cc memoryctrl.cc noc.cc nuca.cc parameter.cc processor.cc router.cc sharedcache.cc subarray.cc technology.cc uca.cc wire.cc xmlParser.cc gpgpu_sim_wrapper.cc  2> /dev/null
make -C ./cacti/ depend
make[3]: Entering directory '/home/lewis/hwAI/gpgpu-sim-dev/src/gpuwattch/cacti'
make[4]: Entering directory '/home/lewis/hwAI/gpgpu-sim-dev/src/gpuwattch/cacti'
touch /home/lewis/hwAI/gpgpu-sim-dev/build/gcc-4.4.7/cuda-8000/release/gpuwattch/cacti/Makefile.makedepend
makedepend -f/home/lewis/hwAI/gpgpu-sim-dev/build/gcc-4.4.7/cuda-8000/release/gpuwattch/cacti/Makefile.makedepend -p/home/lewis/hwAI/gpgpu-sim-dev/build/gcc-4.4.7/cuda-8000/release/gpuwattch/cacti/ area.cc bank.cc mat.cc main.cc Ucache.cc io.cc technology.cc basic_circuit.cc parameter.cc decoder.cc component.cc uca.cc subarray.cc wire.cc htree2.cc cacti_interface.cc router.cc nuca.cc crossbar.cc arbiter.cc  2> /dev/null
make[4]: Nothing to be done for 'depend'.
make[4]: Leaving directory '/home/lewis/hwAI/gpgpu-sim-dev/src/gpuwattch/cacti'
make[3]: Leaving directory '/home/lewis/hwAI/gpgpu-sim-dev/src/gpuwattch/cacti'
make[2]: Nothing to be done for 'all'.
make[2]: Leaving directory '/home/lewis/hwAI/gpgpu-sim-dev/src/gpuwattch'
make[1]: Leaving directory '/home/lewis/hwAI/gpgpu-sim-dev/src/gpuwattch'
make -C ./libcuda/ depend
make[1]: Entering directory '/home/lewis/hwAI/gpgpu-sim-dev/libcuda'
touch /home/lewis/hwAI/gpgpu-sim-dev/build/gcc-4.4.7/cuda-8000/release/libcuda/Makefile.makedepend
makedepend -f/home/lewis/hwAI/gpgpu-sim-dev/build/gcc-4.4.7/cuda-8000/release/libcuda/Makefile.makedepend -p/home/lewis/hwAI/gpgpu-sim-dev/build/gcc-4.4.7/cuda-8000/release/libcuda/ cuda_runtime_api.cc 2> /dev/null
make[1]: 'depend' is up to date.
make[1]: Leaving directory '/home/lewis/hwAI/gpgpu-sim-dev/libcuda'
make -C ./libcuda/
make[1]: Entering directory '/home/lewis/hwAI/gpgpu-sim-dev/libcuda'
touch /home/lewis/hwAI/gpgpu-sim-dev/build/gcc-4.4.7/cuda-8000/release/libcuda/Makefile.makedepend
makedepend -f/home/lewis/hwAI/gpgpu-sim-dev/build/gcc-4.4.7/cuda-8000/release/libcuda/Makefile.makedepend -p/home/lewis/hwAI/gpgpu-sim-dev/build/gcc-4.4.7/cuda-8000/release/libcuda/ cuda_runtime_api.cc 2> /dev/null
echo /home/lewis/hwAI/gpgpu-sim-dev/build/gcc-4.4.7/cuda-8000/release/libcuda/cuda_runtime_api.o /home/lewis/hwAI/gpgpu-sim-dev/build/gcc-4.4.7/cuda-8000/release/libcuda/cuobjdump_lexer.o /home/lewis/hwAI/gpgpu-sim-dev/build/gcc-4.4.7/cuda-8000/release/libcuda/cuobjdump_parser.o
/home/lewis/hwAI/gpgpu-sim-dev/build/gcc-4.4.7/cuda-8000/release/libcuda/cuda_runtime_api.o /home/lewis/hwAI/gpgpu-sim-dev/build/gcc-4.4.7/cuda-8000/release/libcuda/cuobjdump_lexer.o /home/lewis/hwAI/gpgpu-sim-dev/build/gcc-4.4.7/cuda-8000/release/libcuda/cuobjdump_parser.o
ar rcs /home/lewis/hwAI/gpgpu-sim-dev/build/gcc-4.4.7/cuda-8000/release/libcuda/libcuda.a /home/lewis/hwAI/gpgpu-sim-dev/build/gcc-4.4.7/cuda-8000/release/libcuda/cuda_runtime_api.o /home/lewis/hwAI/gpgpu-sim-dev/build/gcc-4.4.7/cuda-8000/release/libcuda/cuobjdump_lexer.o /home/lewis/hwAI/gpgpu-sim-dev/build/gcc-4.4.7/cuda-8000/release/libcuda/cuobjdump_parser.o
make[1]: Leaving directory '/home/lewis/hwAI/gpgpu-sim-dev/libcuda'
g++ -shared -Wl,-soname,libcudart_"gpgpu-sim_git-commit-_modified_".so \
		/home/lewis/hwAI/gpgpu-sim-dev/build/gcc-4.4.7/cuda-8000/release/libcuda/*.o \
		/home/lewis/hwAI/gpgpu-sim-dev/build/gcc-4.4.7/cuda-8000/release/cuda-sim/*.o \
		/home/lewis/hwAI/gpgpu-sim-dev/build/gcc-4.4.7/cuda-8000/release/cuda-sim/decuda_pred_table/*.o \
		/home/lewis/hwAI/gpgpu-sim-dev/build/gcc-4.4.7/cuda-8000/release/gpgpu-sim/*.o \
		/home/lewis/hwAI/gpgpu-sim-dev/build/gcc-4.4.7/cuda-8000/release/intersim2/*.o \
		/home/lewis/hwAI/gpgpu-sim-dev/build/gcc-4.4.7/cuda-8000/release/*.o -lm -lz -lGL -pthread \
		/home/lewis/hwAI/gpgpu-sim-dev/build/gcc-4.4.7/cuda-8000/release/gpuwattch/*.o \
		-o lib/gcc-4.4.7/cuda-8000/release/libcudart.so
if [ ! -f lib/gcc-4.4.7/cuda-8000/release/libcudart.so.2 ]; then ln -s libcudart.so lib/gcc-4.4.7/cuda-8000/release/libcudart.so.2; fi
if [ ! -f lib/gcc-4.4.7/cuda-8000/release/libcudart.so.3 ]; then ln -s libcudart.so lib/gcc-4.4.7/cuda-8000/release/libcudart.so.3; fi
if [ ! -f lib/gcc-4.4.7/cuda-8000/release/libcudart.so.4 ]; then ln -s libcudart.so lib/gcc-4.4.7/cuda-8000/release/libcudart.so.4; fi
if [ ! -f lib/gcc-4.4.7/cuda-8000/release/libcudart.so.5.0 ]; then ln -s libcudart.so lib/gcc-4.4.7/cuda-8000/release/libcudart.so.5.0; fi
if [ ! -f lib/gcc-4.4.7/cuda-8000/release/libcudart.so.5.5 ]; then ln -s libcudart.so lib/gcc-4.4.7/cuda-8000/release/libcudart.so.5.5; fi
if [ ! -f lib/gcc-4.4.7/cuda-8000/release/libcudart.so.6.0 ]; then ln -s libcudart.so lib/gcc-4.4.7/cuda-8000/release/libcudart.so.6.0; fi
if [ ! -f lib/gcc-4.4.7/cuda-8000/release/libcudart.so.6.5 ]; then ln -s libcudart.so lib/gcc-4.4.7/cuda-8000/release/libcudart.so.6.5; fi
if [ ! -f lib/gcc-4.4.7/cuda-8000/release/libcudart.so.7.5 ]; then ln -s libcudart.so lib/gcc-4.4.7/cuda-8000/release/libcudart.so.7.5; fi
if [ ! -f lib/gcc-4.4.7/cuda-8000/release/libcudart.so.8.0 ]; then ln -s libcudart.so lib/gcc-4.4.7/cuda-8000/release/libcudart.so.8.0; fi
Warning: gpgpu-sim is building without opencl support. Make sure NVOPENCL_LIBDIR and NVOPENCL_INCDIR are set
make -C ./cuobjdump_to_ptxplus/ depend
make[1]: Entering directory '/home/lewis/hwAI/gpgpu-sim-dev/cuobjdump_to_ptxplus'
touch /home/lewis/hwAI/gpgpu-sim-dev/build/gcc-4.4.7/cuda-8000/release/cuobjdump_to_ptxplus/Makefile.makedepend
makedepend -f/home/lewis/hwAI/gpgpu-sim-dev/build/gcc-4.4.7/cuda-8000/release/cuobjdump_to_ptxplus/Makefile.makedepend cuobjdumpInst.cc cuobjdumpInstList.cc cuobjdump_to_ptxplus.cc 2> /dev/null
make[1]: Leaving directory '/home/lewis/hwAI/gpgpu-sim-dev/cuobjdump_to_ptxplus'
make -C ./cuobjdump_to_ptxplus/
make[1]: Entering directory '/home/lewis/hwAI/gpgpu-sim-dev/cuobjdump_to_ptxplus'
make[1]: Nothing to be done for 'all'.
make[1]: Leaving directory '/home/lewis/hwAI/gpgpu-sim-dev/cuobjdump_to_ptxplus'
